================================
Processing input files
Task ID: 5
Input file: stage02_input_files/data_5.txt
Output file: stage02_results/processed_5.txt
Started at: Wed Jan  7 12:00:43 PM AWST 2026
================================
Processed 100 values
Average: 501.99
Finished at: Wed Jan  7 12:00:43 PM AWST 2026
Output saved to: stage02_results/processed_5.txt
