================================
Processing input files
Task ID: 2
Input file: stage02_input_files/data_2.txt
Output file: stage02_results/processed_2.txt
Started at: Wed Jan  7 12:00:43 PM AWST 2026
================================
Processed 100 values
Average: 516.49
Finished at: Wed Jan  7 12:00:43 PM AWST 2026
Output saved to: stage02_results/processed_2.txt
